Version 4
SHEET 1 3368 680
WIRE 1584 -176 1264 -176
WIRE 1856 -176 1584 -176
WIRE 2272 -176 1856 -176
WIRE 2416 -176 2272 -176
WIRE 2528 -176 2496 -176
WIRE 2672 -176 2640 -176
WIRE 2944 -176 2752 -176
WIRE 3040 -176 3008 -176
WIRE 3152 -176 3040 -176
WIRE 3264 -176 3152 -176
WIRE 1264 -160 1264 -176
WIRE 3152 -160 3152 -176
WIRE 2272 -144 2272 -176
WIRE 2528 -144 2528 -176
WIRE 2640 -144 2640 -176
WIRE 1856 -80 1856 -176
WIRE 3152 -64 3152 -96
WIRE 2640 -32 2640 -64
WIRE 1264 -16 1264 -80
WIRE 1584 -16 1584 -176
WIRE 1696 -16 1584 -16
WIRE 2096 -16 2016 -16
WIRE 2112 -16 2096 -16
WIRE 2224 -16 2176 -16
WIRE 2272 -16 2272 -64
WIRE 2320 -16 2272 -16
WIRE 2464 -16 2384 -16
WIRE 2528 -16 2528 -64
WIRE 2528 -16 2464 -16
WIRE 2528 0 2528 -16
WIRE 3040 32 3040 -176
WIRE 1600 80 1568 80
WIRE 1696 80 1664 80
WIRE 2336 80 2016 80
WIRE 2480 80 2336 80
WIRE 2528 112 2528 96
WIRE 2528 112 2464 112
WIRE 2640 112 2528 112
WIRE 2528 128 2528 112
WIRE 2640 128 2640 112
WIRE 3040 144 3040 112
WIRE 1600 176 1568 176
WIRE 1696 176 1680 176
WIRE 2464 176 2464 112
WIRE 2464 176 2016 176
WIRE 2528 224 2528 208
WIRE 2640 224 2640 208
WIRE 1632 272 1440 272
WIRE 1696 272 1632 272
WIRE 3040 272 3040 224
WIRE 3040 272 2016 272
WIRE 3040 288 3040 272
WIRE 1632 304 1632 272
WIRE 1440 320 1440 272
WIRE 1856 352 1856 336
WIRE 2096 368 2096 -16
WIRE 3040 384 3040 368
WIRE 1440 416 1440 384
WIRE 1632 432 1632 384
WIRE 2096 480 2096 448
WIRE 1632 512 1632 496
FLAG 1568 176 0
FLAG 3040 384 0
FLAG 1856 352 0
FLAG 3152 -64 0
FLAG 1632 512 0
FLAG 1264 -16 0
FLAG 1568 80 0
FLAG 2224 -16 0
FLAG 3264 -176 OUT
FLAG 1264 -176 IN
FLAG 2528 224 0
FLAG 2096 480 0
FLAG 2640 -32 0
FLAG 2336 80 GATE
FLAG 2464 -16 DV_TRANS
FLAG 1440 416 0
FLAG 2640 224 0
SYMBOL PowerProducts\\LT3757 1856 128 R0
SYMATTR InstName U1
SYMBOL NMOS 2480 0 R0
SYMATTR InstName Q1
SYMATTR Value BSC190N15NS3
SYMBOL RES 1696 192 M270
WINDOW 0 32 56 VTop 2
WINDOW 3 0 56 VBottom 2
SYMATTR InstName R1
SYMATTR Value 140K
SYMBOL res 3024 272 R0
SYMATTR InstName R2
SYMATTR Value 17.8K
SYMATTR SpiceLine tol=1
SYMBOL res 3024 128 R0
SYMATTR InstName R3
SYMATTR Value 976K
SYMATTR SpiceLine tol=1
SYMBOL diode 2944 -160 R270
WINDOW 0 32 32 VTop 2
WINDOW 3 0 32 VBottom 2
SYMATTR InstName D1
SYMATTR Value MUR460
SYMATTR Description Schottky diode
SYMATTR Type schottky
SYMBOL polcap 3136 -160 R0
WINDOW 40 27 64 Left 2
WINDOW 3 40 36 Left 2
SYMATTR SpiceLine2 x3
SYMATTR Value 10µ
SYMATTR InstName C1
SYMATTR SpiceLine Rser=.1
SYMBOL res 1648 288 M0
SYMATTR InstName R4
SYMATTR Value 22K
SYMBOL cap 1648 432 M0
SYMATTR InstName C2
SYMATTR Value 6800p
SYMBOL VOLTAGE 1264 -176 R0
WINDOW 123 0 0 Left 0
WINDOW 39 0 0 Left 0
SYMATTR InstName V1
SYMATTR Value 24.2
SYMBOL polcap 2112 -32 M90
WINDOW 0 0 32 VBottom 2
WINDOW 3 32 32 VTop 2
SYMATTR InstName C3
SYMATTR Value 4.7µ
SYMBOL cap 1664 64 R90
WINDOW 0 0 32 VBottom 2
WINDOW 3 32 32 VTop 2
SYMATTR InstName C4
SYMATTR Value .01µ
SYMBOL res 2512 112 R0
SYMATTR InstName R7
SYMATTR Value .008
SYMBOL VOLTAGE 2096 352 R0
WINDOW 123 0 0 Left 0
WINDOW 39 0 0 Left 0
SYMATTR InstName V2
SYMATTR Value 12.0
SYMBOL ind2 2512 -160 R0
WINDOW 0 -42 34 Left 2
WINDOW 3 -80 60 Left 2
SYMATTR InstName L1
SYMATTR Value 2.47µ
SYMATTR Type ind
SYMATTR SpiceLine Rser=0.0056
SYMBOL ind2 2656 -48 R180
WINDOW 0 -47 77 Left 2
WINDOW 3 -98 46 Left 2
SYMATTR InstName L2
SYMATTR Value 247.0µ
SYMATTR Type ind
SYMATTR SpiceLine Rser=0.400
SYMBOL ind 2400 -160 R270
WINDOW 0 32 56 VTop 2
WINDOW 3 91 55 VBottom 2
SYMATTR InstName L3
SYMATTR Value 0.03µ
SYMBOL ind 2656 -160 R270
WINDOW 0 32 56 VTop 2
WINDOW 3 88 66 VBottom 2
SYMATTR InstName L4
SYMATTR Value 3.02µ
SYMBOL cap 1424 320 R0
SYMATTR InstName C6
SYMATTR Value 100n
SYMBOL cap 2384 -32 R90
WINDOW 0 0 32 VBottom 2
WINDOW 3 32 32 VTop 2
SYMATTR InstName C5
SYMATTR Value 0.1µ
SYMBOL res 2256 -160 R0
SYMATTR InstName R5
SYMATTR Value 1
SYMBOL res 3024 16 R0
SYMATTR InstName R6
SYMATTR Value 976K
SYMBOL res 2624 112 R0
SYMATTR InstName R8
SYMATTR Value .008
TEXT 3152 368 Left 2 !.tran 0.1 startup
TEXT 2520 -208 Left 2 !K1 L1 L2 1
TEXT 1072 24 Left 2 ;Connect to microcontroller for digital control.
