Version 4
SHEET 1 1424 712
WIRE 288 -368 -336 -368
WIRE -96 -256 -176 -256
WIRE 160 -256 -96 -256
WIRE 208 -256 160 -256
WIRE 608 -256 208 -256
WIRE 672 -256 608 -256
WIRE 800 -256 752 -256
WIRE 944 -256 848 -256
WIRE 1136 -256 1024 -256
WIRE 1264 -256 1200 -256
WIRE 1344 -256 1264 -256
WIRE -176 -240 -176 -256
WIRE 160 -240 160 -256
WIRE 608 -240 608 -256
WIRE 800 -208 800 -256
WIRE 848 -208 848 -256
WIRE 1264 -208 1264 -256
WIRE 288 -160 288 -368
WIRE 400 -160 288 -160
WIRE -176 -144 -176 -160
WIRE 160 -144 160 -160
WIRE 288 -144 288 -160
WIRE 848 -96 848 -128
WIRE 1264 -96 1264 -144
WIRE -336 -80 -336 -368
WIRE -272 -80 -336 -80
WIRE -64 -80 -272 -80
WIRE -32 -80 -64 -80
WIRE 64 -80 48 -80
WIRE 416 -80 384 -80
WIRE 608 -80 608 -96
WIRE 608 -80 496 -80
WIRE 800 -80 800 -128
WIRE 800 -80 608 -80
WIRE -336 16 -336 -80
WIRE -64 16 -64 -80
WIRE -32 16 -64 16
WIRE 64 16 48 16
WIRE 416 16 384 16
WIRE 800 16 800 -80
WIRE 800 16 496 16
WIRE 800 32 800 16
WIRE -32 112 -48 112
WIRE 64 112 48 112
WIRE 432 112 384 112
WIRE 752 112 432 112
WIRE -336 160 -336 96
WIRE 800 160 800 128
WIRE 800 160 432 160
WIRE 800 176 800 160
WIRE -96 208 -96 -256
WIRE -48 208 -48 112
WIRE -48 208 -96 208
WIRE -32 208 -48 208
WIRE 64 208 48 208
WIRE 400 208 400 -160
WIRE 400 208 384 208
WIRE 800 272 800 256
WIRE 64 304 -336 304
WIRE 432 304 432 160
WIRE 432 304 384 304
WIRE -336 336 -336 304
WIRE 64 400 48 400
WIRE 400 400 384 400
WIRE -336 448 -336 416
WIRE -48 496 -48 208
WIRE -32 496 -48 496
WIRE 64 496 48 496
WIRE 400 496 384 496
WIRE -48 592 -48 496
WIRE -32 592 -48 592
WIRE 64 592 48 592
WIRE 400 592 384 592
WIRE 496 592 480 592
WIRE 224 672 224 656
FLAG -176 -144 0
FLAG 800 272 0
FLAG 400 400 0
FLAG 400 496 0
FLAG 224 672 0
FLAG 496 592 0
FLAG 48 400 0
FLAG -336 448 0
FLAG 848 -96 0
FLAG 1264 -96 0
FLAG -176 -256 IN
FLAG 1264 -256 OUT
FLAG -336 160 0
FLAG -336 304 charge_en
FLAG 432 112 gate
FLAG -272 -80 vcc
FLAG 208 -256 trans
FLAG 800 16 drain
FLAG 1344 -256 v_out
FLAG 48 496 not_fault
FLAG 48 592 not_done
SYMBOL PowerProducts\\LT3751 224 256 R0
SYMATTR InstName U1
SYMBOL voltage -176 -256 R0
SYMATTR InstName V1
SYMATTR Value 24
SYMBOL res 144 -256 R0
SYMATTR InstName R1
SYMATTR Value 40.2k
SYMBOL res 512 -96 R90
WINDOW 0 0 56 VBottom 2
WINDOW 3 32 56 VTop 2
SYMATTR InstName R2
SYMATTR Value 18.2k
SYMBOL res 512 0 R90
WINDOW 0 0 56 VBottom 2
WINDOW 3 32 56 VTop 2
SYMATTR InstName R3
SYMATTR Value 40.2k
SYMBOL nmos 752 32 R0
SYMATTR InstName Q1
SYMATTR Value IRFP4668
SYMBOL res 784 160 R0
SYMATTR InstName R4
SYMATTR Value 10.0m
SYMATTR SpiceLine pwr=0.5
SYMBOL res 384 608 R270
WINDOW 0 32 56 VTop 2
WINDOW 3 0 56 VBottom 2
SYMATTR InstName R5
SYMATTR Value 1.62k
SYMBOL res -48 128 R270
WINDOW 0 32 56 VTop 2
WINDOW 3 0 56 VBottom 2
SYMATTR InstName R6
SYMATTR Value 316K
SYMBOL res -48 224 R270
WINDOW 0 32 56 VTop 2
WINDOW 3 0 56 VBottom 2
SYMATTR InstName R7
SYMATTR Value 523K
SYMBOL res -48 -64 R270
WINDOW 0 32 56 VTop 2
WINDOW 3 0 56 VBottom 2
SYMATTR InstName R8
SYMATTR Value 261K
SYMBOL res -48 32 R270
WINDOW 0 32 56 VTop 2
WINDOW 3 0 56 VBottom 2
SYMATTR InstName R9
SYMATTR Value 287K
SYMBOL res -48 512 R270
WINDOW 0 32 56 VTop 2
WINDOW 3 0 56 VBottom 2
SYMATTR InstName R10
SYMATTR Value 100K
SYMBOL res -48 608 R270
WINDOW 0 32 56 VTop 2
WINDOW 3 0 56 VBottom 2
SYMATTR InstName R11
SYMATTR Value 100K
SYMBOL voltage -336 320 R0
WINDOW 123 24 138 Left 2
WINDOW 39 24 117 Left 2
SYMATTR InstName V2
SYMATTR Value PWL(.1m 0 .101m 5)
SYMBOL ind2 784 -224 R0
WINDOW 0 -10 35 Right 2
WINDOW 3 -10 74 Right 2
SYMATTR InstName L1
SYMATTR Value 9.87u
SYMATTR Type ind
SYMATTR SpiceLine Ipk=10 Rser=18m
SYMBOL ind2 864 -112 R180
WINDOW 0 -40 75 Left 2
WINDOW 3 -73 26 Left 2
SYMATTR InstName L2
SYMATTR Value 987u
SYMATTR Type ind
SYMBOL diode 1136 -240 R270
WINDOW 0 32 32 VTop 2
WINDOW 3 0 32 VBottom 2
SYMATTR InstName D1
SYMATTR Value MUR460
SYMBOL cap 1248 -208 R0
SYMATTR InstName C1
SYMATTR Value 36u
SYMATTR SpiceLine V=250
SYMBOL voltage -336 0 R0
WINDOW 123 0 0 Left 0
WINDOW 39 0 0 Left 0
SYMATTR InstName V3
SYMATTR Value 15
SYMBOL ind 656 -240 R270
WINDOW 0 32 56 VTop 2
WINDOW 3 5 56 VBottom 2
SYMATTR InstName L3
SYMATTR Value 0.13u
SYMBOL ind 928 -240 R270
WINDOW 0 32 56 VTop 2
WINDOW 3 5 56 VBottom 2
SYMATTR InstName L4
SYMATTR Value 13u
SYMBOL res 592 -256 R0
SYMATTR InstName R12
SYMATTR Value 10
SYMBOL cap 592 -160 R0
SYMATTR InstName C2
SYMATTR Value 0.027u
TEXT 824 -264 Bottom 2 !K1 L1 L2 1
TEXT 720 480 Left 2 !.tran 0.05 startup
