Version 4
SHEET 1 1280 680
WIRE 416 48 96 48
WIRE 624 48 416 48
WIRE 720 48 624 48
WIRE 816 48 720 48
WIRE 928 48 816 48
WIRE 96 80 96 48
WIRE 416 80 416 48
WIRE 624 128 624 48
WIRE 720 128 720 48
WIRE 816 128 816 48
WIRE 928 128 928 48
WIRE 96 160 96 144
WIRE 144 160 96 160
WIRE 256 160 224 160
WIRE 272 160 256 160
WIRE 368 160 336 160
WIRE 416 160 416 144
WIRE 416 160 368 160
WIRE 96 176 96 160
WIRE 416 176 416 160
WIRE 256 256 256 160
WIRE 272 256 256 256
WIRE 368 256 368 160
WIRE 368 256 352 256
WIRE 96 368 96 240
WIRE 416 368 416 240
WIRE 416 368 96 368
WIRE 624 368 624 192
WIRE 624 368 416 368
WIRE 720 368 720 192
WIRE 720 368 624 368
WIRE 816 368 816 192
WIRE 816 368 720 368
WIRE 928 368 928 208
WIRE 928 368 816 368
WIRE 96 384 96 368
FLAG 96 384 0
FLAG 928 48 V+
SYMBOL Misc\\signal 240 160 R90
WINDOW 123 0 0 Left 0
WINDOW 39 0 0 Left 0
SYMATTR InstName V1
SYMATTR Value SINE(0 170 60)
SYMBOL cap 608 128 R0
SYMATTR InstName C2
SYMATTR Value 1000u
SYMBOL diode 112 144 R180
WINDOW 0 24 64 Left 2
WINDOW 3 24 0 Left 2
SYMATTR InstName D1
SYMATTR Value VS-E5PH7506
SYMBOL diode 112 240 R180
WINDOW 0 24 64 Left 2
WINDOW 3 24 0 Left 2
SYMATTR InstName D2
SYMATTR Value VS-E5PH7506
SYMBOL diode 400 144 M180
WINDOW 0 24 64 Left 2
WINDOW 3 24 0 Left 2
SYMATTR InstName D3
SYMATTR Value VS-E5PH7506
SYMBOL diode 400 240 M180
WINDOW 0 24 64 Left 2
WINDOW 3 24 0 Left 2
SYMATTR InstName D4
SYMATTR Value VS-E5PH7506
SYMBOL res 912 112 R0
SYMATTR InstName R2
SYMATTR Value 1Meg
SYMBOL cap 272 144 M90
WINDOW 0 0 32 VBottom 2
WINDOW 3 32 32 VTop 2
SYMATTR InstName C1
SYMATTR Value 12u
SYMBOL res 256 240 M90
WINDOW 0 0 56 VBottom 2
WINDOW 3 32 56 VTop 2
SYMATTR InstName R1
SYMATTR Value 1Meg
SYMBOL cap 704 128 R0
SYMATTR InstName C3
SYMATTR Value 1000u
SYMBOL cap 800 128 R0
SYMATTR InstName C4
SYMATTR Value 1000u
TEXT -68 416 Left 2 !.tran 0 10 0 1u startup
TEXT 96 -64 Left 2 ;C1: B58033I5206M001\nCeff: 12uF\nhttps://www.digikey.com/en/products/detail/epcos-tdk-electronics/B58033I5206M001/5039882
TEXT 192 392 Left 2 ;C2, C3, C4: 861221084017\nC: 1000uF\nhttps://www.digikey.com/en/products/detail/w%C3%BCrth-elektronik/861221084017/8556576
