Version 4
SHEET 1 904 680
WIRE -1392 -192 -1520 -192
WIRE -1264 -192 -1392 -192
WIRE -1024 -192 -1184 -192
WIRE -320 -192 -1024 -192
WIRE -240 -192 -320 -192
WIRE -144 -192 -240 -192
WIRE -112 -192 -144 -192
WIRE -32 -192 -112 -192
WIRE 16 -192 -32 -192
WIRE 336 -192 112 -192
WIRE 592 -192 432 -192
WIRE 656 -192 592 -192
WIRE 784 -192 656 -192
WIRE 832 -192 784 -192
WIRE -240 -176 -240 -192
WIRE -1392 -160 -1392 -192
WIRE -320 -160 -320 -192
WIRE -112 -128 -112 -192
WIRE 784 -128 784 -192
WIRE 96 -112 96 -144
WIRE 128 -112 96 -112
WIRE 224 -112 208 -112
WIRE 240 -112 224 -112
WIRE 352 -112 352 -144
WIRE 352 -112 320 -112
WIRE 656 -112 656 -192
WIRE -432 -64 -432 -96
WIRE -320 -64 -320 -96
WIRE -240 -64 -240 -96
WIRE -1392 -48 -1392 -80
WIRE 224 -48 224 -112
WIRE 272 -48 224 -48
WIRE 320 -48 272 -48
WIRE 432 -48 400 -48
WIRE 528 -48 496 -48
WIRE -112 -16 -112 -48
WIRE 528 -16 528 -48
WIRE 656 -16 656 -48
WIRE 784 -16 784 -48
WIRE 224 0 224 -48
WIRE -1024 16 -1024 -192
WIRE -1072 32 -1152 32
WIRE -32 64 -32 -192
WIRE 64 64 -32 64
WIRE 400 64 368 64
WIRE 592 64 592 -192
WIRE 592 64 400 64
WIRE -1216 80 -1248 80
WIRE -1104 80 -1216 80
WIRE -1072 80 -1104 80
WIRE 400 80 400 64
WIRE -1248 96 -1248 80
WIRE -1024 128 -1024 96
WIRE -704 128 -1024 128
WIRE -496 128 -640 128
WIRE -352 128 -496 128
WIRE -272 128 -352 128
WIRE 64 128 -272 128
WIRE -1024 144 -1024 128
WIRE -1104 160 -1104 80
WIRE -1072 160 -1104 160
WIRE -496 176 -496 128
WIRE -352 176 -352 128
WIRE -112 192 -112 64
WIRE 0 192 -112 192
WIRE 64 192 0 192
WIRE 400 192 400 160
WIRE 400 192 368 192
WIRE -1248 208 -1248 176
WIRE -1152 208 -1152 32
WIRE -1072 208 -1152 208
WIRE -112 224 -112 192
WIRE -1152 256 -1152 208
WIRE -1024 256 -1024 224
WIRE -1024 256 -1152 256
WIRE 16 256 0 256
WIRE 64 256 16 256
WIRE -1024 272 -1024 256
WIRE -352 320 -352 256
WIRE -112 336 -112 304
WIRE 0 336 0 256
WIRE 0 336 -112 336
WIRE 224 336 224 304
WIRE -112 352 -112 336
WIRE -496 416 -496 256
WIRE -352 416 -352 384
WIRE -352 416 -496 416
WIRE -496 448 -496 416
WIRE -112 464 -112 432
FLAG 528 -16 0
FLAG 224 336 0
FLAG 656 -16 0
FLAG -320 -64 0
FLAG -1248 208 0
FLAG 832 -192 Vout
FLAG 784 -16 0
FLAG -144 -192 Vin
FLAG -1520 -192 Vbatt
FLAG 272 -48 Vgate
FLAG -272 128 Ven
FLAG -240 -64 0
FLAG -112 464 0
FLAG -496 448 0
FLAG -1024 272 0
FLAG -1216 80 vpsw
FLAG -432 -64 0
FLAG 0 192 UV
FLAG 16 256 OV
FLAG -1392 -48 0
SYMBOL SpecialFunctions\\LTC4367 224 224 R0
SYMATTR InstName U1
SYMBOL nmos 16 -144 R270
SYMATTR InstName M1
SYMATTR Value AONS66919
SYMBOL nmos 432 -144 M270
SYMATTR InstName M2
SYMATTR Value AONS66919
SYMBOL res 224 -128 R90
WINDOW 0 0 56 VBottom 2
WINDOW 3 32 56 VTop 2
SYMATTR InstName R1
SYMATTR Value 10
SYMBOL res 336 -128 R90
WINDOW 0 0 56 VBottom 2
WINDOW 3 32 56 VTop 2
SYMATTR InstName R2
SYMATTR Value 10
SYMBOL res 416 -64 R90
WINDOW 0 0 56 VBottom 2
WINDOW 3 32 56 VTop 2
SYMATTR InstName R3
SYMATTR Value 5.1k
SYMBOL cap 496 -64 R90
WINDOW 0 0 32 VBottom 2
WINDOW 3 32 32 VTop 2
SYMATTR InstName C1
SYMATTR Value 10n
SYMBOL cap 640 -112 R0
SYMATTR InstName C2
SYMATTR Value 2000µ
SYMBOL res 384 64 R0
SYMATTR InstName R4
SYMATTR Value 100k
SYMBOL cap -336 -160 R0
SYMATTR InstName C3
SYMATTR Value 10µ
SYMBOL Misc\\signal -1248 80 M0
WINDOW 123 0 0 Left 0
WINDOW 39 0 0 Left 0
SYMATTR InstName V1
SYMATTR Value PULSE(0 1 1s 50n 50n 30 120s)
SYMBOL ind -1168 -208 R90
WINDOW 0 5 56 VBottom 2
WINDOW 3 32 56 VTop 2
SYMATTR InstName L1
SYMATTR Value 6µ
SYMATTR SpiceLine Rser=1m
SYMBOL res 768 -144 R0
SYMATTR InstName R7
SYMATTR Value 10k
SYMBOL res -256 -192 R0
SYMATTR InstName R8
SYMATTR Value 10k
SYMBOL res -128 -144 R0
SYMATTR InstName R9
SYMATTR Value 5100k
SYMBOL res -128 -32 R0
SYMATTR InstName R10
SYMATTR Value 4300k
SYMBOL res -128 208 R0
SYMATTR InstName R5
SYMATTR Value 147k
SYMBOL res -128 336 R0
SYMATTR InstName R6
SYMATTR Value 154k
SYMBOL schottky -416 -96 R180
WINDOW 0 24 64 Left 2
WINDOW 3 24 0 Left 2
SYMATTR InstName D1
SYMATTR Value RBR20BGE30A
SYMATTR Description Zener Diode
SYMATTR Type tvsdiode
SYMBOL sw -1024 128 R0
SYMATTR InstName S2
SYMATTR Value pwr_sw_low
SYMBOL res -512 160 R0
SYMATTR InstName R11
SYMATTR Value 910k
SYMBOL res -368 160 R0
SYMATTR InstName R12
SYMATTR Value 10k
SYMBOL cap -368 320 R0
SYMATTR InstName C4
SYMATTR Value 10µF
SYMBOL sw -1024 0 R0
SYMATTR InstName S3
SYMATTR Value pwr_sw_high
SYMBOL diode -704 144 R270
WINDOW 0 32 32 VTop 2
WINDOW 3 0 32 VBottom 2
SYMATTR InstName D2
SYMATTR Value MMSD4148
SYMBOL voltage -1392 -176 R0
WINDOW 123 0 0 Left 0
WINDOW 39 0 0 Left 0
SYMATTR InstName V2
SYMATTR Value PWL(0 0 50n 22.2)
TEXT -1432 136 Left 2 !.tran 240
TEXT -1648 352 Left 2 !.model pwr_sw_high SW(Ron=1m Roff=1000Meg Vt=0.5)
TEXT -1648 376 Left 2 !.model pwr_sw_low SW(Ron=1m Roff=1000Meg Vt=0.5)
