Version 4
SHEET 1 904 680
WIRE -544 -192 -640 -192
WIRE -432 -192 -464 -192
WIRE -320 -192 -352 -192
WIRE -144 -192 -320 -192
WIRE -32 -192 -144 -192
WIRE 16 -192 -32 -192
WIRE 336 -192 112 -192
WIRE 592 -192 432 -192
WIRE 656 -192 592 -192
WIRE 784 -192 656 -192
WIRE 832 -192 784 -192
WIRE -640 -160 -640 -192
WIRE -320 -160 -320 -192
WIRE 784 -128 784 -192
WIRE -528 -112 -528 -144
WIRE -528 -112 -576 -112
WIRE -480 -112 -480 -144
WIRE -432 -112 -480 -112
WIRE 96 -112 96 -144
WIRE 128 -112 96 -112
WIRE 224 -112 208 -112
WIRE 240 -112 224 -112
WIRE 352 -112 352 -144
WIRE 352 -112 320 -112
WIRE 656 -112 656 -192
WIRE -640 -64 -640 -96
WIRE -576 -64 -576 -112
WIRE -544 -64 -576 -64
WIRE -432 -64 -432 -112
WIRE -432 -64 -464 -64
WIRE -320 -64 -320 -96
WIRE -240 -64 -240 -96
WIRE -432 -48 -432 -64
WIRE 224 -48 224 -112
WIRE 272 -48 224 -48
WIRE 320 -48 272 -48
WIRE 432 -48 400 -48
WIRE 528 -48 496 -48
WIRE 528 -16 528 -48
WIRE 656 -16 656 -48
WIRE 784 -16 784 -48
WIRE 224 0 224 -48
WIRE -32 64 -32 -192
WIRE 64 64 -32 64
WIRE 400 64 368 64
WIRE 592 64 592 -192
WIRE 592 64 400 64
WIRE 400 80 400 64
WIRE 64 128 -272 128
WIRE -144 192 -144 -192
WIRE -112 192 -144 192
WIRE 64 192 -32 192
WIRE 400 192 400 160
WIRE 400 192 368 192
WIRE -272 224 -272 128
WIRE -48 256 -80 256
WIRE 64 256 32 256
WIRE -80 288 -80 256
WIRE -272 336 -272 304
WIRE 224 336 224 304
FLAG 528 -16 0
FLAG 224 336 0
FLAG 656 -16 0
FLAG -320 -64 0
FLAG -272 336 0
FLAG -80 288 0
FLAG 832 -192 Vout
FLAG -640 -64 0
FLAG 784 -16 0
FLAG -432 -48 0
FLAG -144 -192 Vin
FLAG -640 -192 Vbatt
FLAG 272 -48 Vgate
FLAG -272 128 Ven
FLAG -576 -112 Vsw
FLAG -240 -64 0
SYMBOL SpecialFunctions\\LTC4367 224 224 R0
SYMATTR InstName U1
SYMBOL nmos 16 -144 R270
SYMATTR InstName M1
SYMATTR Value AONS66919
SYMBOL nmos 432 -144 M270
SYMATTR InstName M2
SYMATTR Value AONS66919
SYMBOL res 224 -128 R90
WINDOW 0 0 56 VBottom 2
WINDOW 3 32 56 VTop 2
SYMATTR InstName R1
SYMATTR Value 10
SYMBOL res 336 -128 R90
WINDOW 0 0 56 VBottom 2
WINDOW 3 32 56 VTop 2
SYMATTR InstName R2
SYMATTR Value 10
SYMBOL res 416 -64 R90
WINDOW 0 0 56 VBottom 2
WINDOW 3 32 56 VTop 2
SYMATTR InstName R3
SYMATTR Value 5.1k
SYMBOL cap 496 -64 R90
WINDOW 0 0 32 VBottom 2
WINDOW 3 32 32 VTop 2
SYMATTR InstName C1
SYMATTR Value 10n
SYMBOL cap 640 -112 R0
SYMATTR InstName C2
SYMATTR Value 2000µ
SYMBOL res 384 64 R0
SYMATTR InstName R4
SYMATTR Value 100k
SYMBOL polcap -336 -160 R0
WINDOW 3 24 56 Left 2
SYMATTR InstName C3
SYMATTR Value Q=x*{10u}-0.5*(x**2)*(({10u}-{1u})/{100})
SYMATTR Description Capacitor
SYMATTR Type cap
SYMATTR SpiceLine V=63 Irms=40m Rser=1.4137 Lser=2.07n
SYMBOL Misc\\signal -272 208 M0
WINDOW 123 0 0 Left 0
WINDOW 39 0 0 Left 0
SYMATTR InstName V1
SYMATTR Value PULSE(0 22.2 50m 1u 1u 200m 1.3)
SYMBOL res -16 176 R90
WINDOW 0 0 56 VBottom 2
WINDOW 3 32 56 VTop 2
SYMATTR InstName R5
SYMATTR Value 100k
SYMBOL res 48 240 R90
WINDOW 0 0 56 VBottom 2
WINDOW 3 32 56 VTop 2
SYMATTR InstName R6
SYMATTR Value 100k
SYMBOL Misc\\cell -640 -160 M0
WINDOW 123 0 0 Left 0
WINDOW 39 0 0 Left 0
SYMATTR InstName V2
SYMATTR Value 25.2
SYMBOL ind -336 -208 R90
WINDOW 0 5 56 VBottom 2
WINDOW 3 32 56 VTop 2
SYMATTR InstName L1
SYMATTR Value 1.5µ
SYMATTR SpiceLine Rser=1m
SYMBOL res 768 -144 R0
SYMATTR InstName R7
SYMATTR Value 10k
SYMBOL sw -448 -192 M270
SYMATTR InstName S1
SYMATTR Value battconn
SYMBOL Misc\\signal -560 -64 M90
WINDOW 0 -48 70 VLeft 2
WINDOW 3 51 230 VLeft 2
WINDOW 123 0 0 Left 0
WINDOW 39 0 0 Left 0
SYMATTR InstName V3
SYMATTR Value PULSE(0 1 0 1u 1u 400m 1)
SYMBOL res -256 -192 R0
SYMATTR InstName R8
SYMATTR Value 10k
TEXT -632 360 Left 2 !.tran 2
TEXT -880 104 Left 2 !.model battconn SW(Ron=1m Roff=1000Meg Vt=0.5)
