Version 4
SHEET 1 884 680
WIRE 576 -160 512 -160
WIRE 688 -160 656 -160
WIRE 400 -64 384 -64
WIRE 512 -64 512 -160
WIRE 512 -64 480 -64
WIRE 576 -64 512 -64
WIRE 688 -64 688 -160
WIRE 688 -64 640 -64
WIRE 384 -32 384 -64
WIRE 224 48 224 16
WIRE 608 96 608 64
WIRE 512 112 512 -64
WIRE 576 112 512 112
WIRE 688 128 688 -64
WIRE 688 128 640 128
WIRE 816 128 688 128
WIRE 224 144 224 128
WIRE 512 144 224 144
WIRE 576 144 512 144
WIRE 224 160 224 144
WIRE 608 192 608 160
WIRE 400 208 368 208
WIRE 512 208 512 144
WIRE 512 208 480 208
WIRE 224 272 224 240
WIRE 48 288 48 256
WIRE -80 304 -80 272
WIRE -80 400 -80 368
WIRE 48 400 48 368
FLAG -80 400 0
FLAG 608 192 0
FLAG -80 272 VDD
FLAG 608 64 VDD
FLAG 224 272 0
FLAG 224 16 VDD
FLAG 384 -32 0
FLAG 368 208 SIG
FLAG 48 400 0
FLAG 48 256 SIG
FLAG 816 128 OUT
SYMBOL Opamps\\LTC6241 608 128 R0
SYMATTR InstName U1
SYMBOL Misc\\cell -80 304 R0
WINDOW 123 0 0 Left 0
WINDOW 39 0 0 Left 0
SYMATTR InstName V1
SYMATTR Value 3.3
SYMBOL res 672 -176 R90
WINDOW 0 0 56 VBottom 2
WINDOW 3 32 56 VTop 2
SYMATTR InstName R1
SYMATTR Value 26.7k
SYMBOL cap 640 -80 R90
WINDOW 0 0 32 VBottom 2
WINDOW 3 32 32 VTop 2
SYMATTR InstName C1
SYMATTR Value 4p
SYMBOL res 208 32 R0
SYMATTR InstName R2
SYMATTR Value 649k
SYMBOL res 208 144 R0
SYMATTR InstName R3
SYMATTR Value 53.6k
SYMBOL Misc\\signal 48 272 R0
WINDOW 123 24 132 Left 2
WINDOW 39 0 0 Left 0
SYMATTR Value2 AC 1
SYMATTR InstName V2
SYMATTR Value ""
SYMBOL res 496 -80 R90
WINDOW 0 0 56 VBottom 2
WINDOW 3 32 56 VTop 2
SYMATTR InstName R4
SYMATTR Value 2.4k
SYMBOL res 496 192 R90
WINDOW 0 0 56 VBottom 2
WINDOW 3 32 56 VTop 2
SYMATTR InstName R5
SYMATTR Value 2.4k
TEXT -112 424 Left 2 !.ac dec 100 1k 10000k
