Version 4
SHEET 1 976 868
WIRE 656 -128 592 -128
WIRE 768 -128 736 -128
WIRE 480 -32 464 -32
WIRE 592 -32 592 -128
WIRE 592 -32 560 -32
WIRE 656 -32 592 -32
WIRE 768 -32 768 -128
WIRE 768 -32 720 -32
WIRE 464 0 464 -32
WIRE 304 80 304 48
WIRE 688 128 688 96
WIRE 592 144 592 -32
WIRE 656 144 592 144
WIRE 768 160 768 -32
WIRE 768 160 720 160
WIRE 896 160 768 160
WIRE 304 176 304 160
WIRE 592 176 304 176
WIRE 656 176 592 176
WIRE 304 192 304 176
WIRE 688 224 688 192
WIRE 480 240 448 240
WIRE 592 240 592 176
WIRE 592 240 560 240
WIRE -144 288 -400 288
WIRE 0 288 -64 288
WIRE 112 288 80 288
WIRE 304 304 304 272
WIRE -400 320 -400 288
WIRE 112 320 112 288
WIRE 112 416 112 400
WIRE 144 416 112 416
WIRE 656 416 592 416
WIRE 768 416 736 416
WIRE -400 432 -400 400
WIRE 112 432 112 416
WIRE -528 448 -528 416
WIRE 480 512 464 512
WIRE 592 512 592 416
WIRE 592 512 560 512
WIRE 656 512 592 512
WIRE 768 512 768 416
WIRE 768 512 720 512
WIRE -528 544 -528 512
WIRE -400 544 -400 512
WIRE 112 544 112 512
WIRE 464 544 464 512
WIRE 304 624 304 592
WIRE 688 672 688 640
WIRE 592 688 592 512
WIRE 656 688 592 688
WIRE 768 704 768 512
WIRE 768 704 720 704
WIRE 896 704 768 704
WIRE 304 720 304 704
WIRE 592 720 304 720
WIRE 656 720 592 720
WIRE 304 736 304 720
WIRE 688 768 688 736
WIRE 480 784 448 784
WIRE 592 784 592 720
WIRE 592 784 560 784
WIRE 304 848 304 816
FLAG -528 544 0
FLAG 688 224 0
FLAG -528 416 VDD
FLAG 688 96 VDD
FLAG 304 304 0
FLAG 304 48 VDD
FLAG 464 0 0
FLAG 448 240 SIG
FLAG -400 544 0
FLAG 144 416 SIG
FLAG 896 160 OUT1
FLAG 112 544 0
FLAG 688 768 0
FLAG 688 640 VDD
FLAG 304 848 0
FLAG 304 592 VDD
FLAG 464 544 0
FLAG 448 784 SIG
FLAG 896 704 OUT2
SYMBOL Opamps\\LTC6241 688 160 R0
SYMATTR InstName U1
SYMBOL Misc\\cell -528 448 R0
WINDOW 123 0 0 Left 0
WINDOW 39 0 0 Left 0
SYMATTR InstName V1
SYMATTR Value 3.3
SYMBOL res 752 -144 R90
WINDOW 0 0 56 VBottom 2
WINDOW 3 32 56 VTop 2
SYMATTR InstName R1
SYMATTR Value 26.7k
SYMBOL cap 720 -48 R90
WINDOW 0 0 32 VBottom 2
WINDOW 3 32 32 VTop 2
SYMATTR InstName C1
SYMATTR Value 100p
SYMBOL res 288 64 R0
SYMATTR InstName R2
SYMATTR Value 649k
SYMBOL res 288 176 R0
SYMATTR InstName R3
SYMATTR Value 53.6k
SYMBOL Misc\\signal -400 416 R0
WINDOW 123 0 0 Left 0
WINDOW 39 0 0 Left 0
SYMATTR InstName V2
SYMATTR Value PULSE(0 22.2 0 0.01u 0.01u 4u 20u 10)
SYMBOL res 576 -48 R90
WINDOW 0 0 56 VBottom 2
WINDOW 3 32 56 VTop 2
SYMATTR InstName R4
SYMATTR Value 2.4k
SYMBOL res 576 224 R90
WINDOW 0 0 56 VBottom 2
WINDOW 3 32 56 VTop 2
SYMATTR InstName R5
SYMATTR Value 2.4k
SYMBOL res 96 416 R0
SYMATTR InstName R6
SYMATTR Value 62m
SYMBOL ind 96 304 R0
SYMATTR InstName L1
SYMATTR Value 0.33m
SYMBOL res 96 272 R90
WINDOW 0 0 56 VBottom 2
WINDOW 3 32 56 VTop 2
SYMATTR InstName R7
SYMATTR Value 0.8
SYMBOL Opamps\\LTC6241 688 704 R0
SYMATTR InstName U2
SYMBOL res 752 400 R90
WINDOW 0 0 56 VBottom 2
WINDOW 3 32 56 VTop 2
SYMATTR InstName R8
SYMATTR Value 26.7k
SYMBOL cap 720 496 R90
WINDOW 0 0 32 VBottom 2
WINDOW 3 32 32 VTop 2
SYMATTR InstName C2
SYMATTR Value 200p
SYMBOL res 288 608 R0
SYMATTR InstName R9
SYMATTR Value 649k
SYMBOL res 288 720 R0
SYMATTR InstName R10
SYMATTR Value 53.6k
SYMBOL res 576 496 R90
WINDOW 0 0 56 VBottom 2
WINDOW 3 32 56 VTop 2
SYMATTR InstName R11
SYMATTR Value 2.4k
SYMBOL res 576 768 R90
WINDOW 0 0 56 VBottom 2
WINDOW 3 32 56 VTop 2
SYMATTR InstName R12
SYMATTR Value 2.4k
SYMBOL res -48 272 R90
WINDOW 0 0 56 VBottom 2
WINDOW 3 32 56 VTop 2
SYMATTR InstName R13
SYMATTR Value 4.688
SYMBOL Misc\\signal -400 304 R0
WINDOW 123 0 0 Left 0
WINDOW 39 0 0 Left 0
SYMATTR InstName V3
SYMATTR Value PULSE(0 22.2 0.2m 0.01u 0.01u 20u 20u)
TEXT -560 568 Left 2 !.tran 0 0.3m 0.1m 1n startup
