Version 4
SHEET 1 1936 1044
WIRE 352 -160 16 -160
WIRE 352 -80 352 -160
WIRE 1120 -48 1056 -48
WIRE 1232 -48 1200 -48
WIRE 1264 -48 1232 -48
WIRE 1536 -48 1344 -48
WIRE 352 64 352 0
WIRE 352 64 272 64
WIRE 432 64 352 64
WIRE 544 64 432 64
WIRE 1056 64 1056 32
WIRE -176 128 -176 80
WIRE 16 128 16 -160
WIRE 272 128 272 64
WIRE 432 128 432 64
WIRE 1392 128 1392 64
WIRE 1232 144 1232 -48
WIRE 1360 144 1232 144
WIRE 1536 160 1536 -48
WIRE 1536 160 1424 160
WIRE 1568 160 1536 160
WIRE 1712 160 1568 160
WIRE 1824 160 1792 160
WIRE 1904 160 1904 144
WIRE 1904 160 1824 160
WIRE 928 176 864 176
WIRE 1056 176 1056 144
WIRE 1056 176 1008 176
WIRE 1360 176 1056 176
WIRE 1824 192 1824 160
WIRE 1056 208 1056 176
WIRE -176 256 -176 208
WIRE 272 272 272 208
WIRE 352 272 272 272
WIRE 432 272 432 208
WIRE 432 272 352 272
WIRE 544 272 432 272
WIRE 1824 304 1824 256
WIRE 1056 320 1056 288
WIRE 16 400 16 208
WIRE 352 400 352 272
WIRE 352 400 16 400
WIRE 1392 400 1392 192
WIRE 1392 400 352 400
WIRE 352 448 352 400
WIRE 1280 736 1280 688
WIRE 960 864 896 864
WIRE 1088 864 1040 864
WIRE 1280 864 1280 816
WIRE 1280 864 1088 864
WIRE 1456 864 1280 864
WIRE 1088 912 1088 864
WIRE 1280 912 1280 864
WIRE 1088 1024 1088 976
WIRE 1280 1024 1280 992
FLAG 352 448 0
FLAG 544 64 CS_P
FLAG 544 272 CS_N
FLAG 1056 -48 CS_N
FLAG 864 176 CS_P
FLAG -176 80 3v0
FLAG -176 256 0
FLAG 1392 64 3v0
FLAG 1568 160 CS_RAW
FLAG 1056 32 3v0
FLAG 1824 304 0
FLAG 1904 144 CS_FILT
FLAG 1088 1024 0
FLAG 1280 688 3v0
FLAG 896 864 CS_P
FLAG 1456 864 OCP_FILT
FLAG 1056 320 0
FLAG 1280 1024 0
SYMBOL voltage 16 112 R0
WINDOW 123 0 0 Left 0
WINDOW 39 0 0 Left 0
SYMATTR InstName V1
SYMATTR Value PULSE(0 25.2 0.005 0 0 0.00002083 0.0000208333)
SYMBOL res 256 112 R0
SYMATTR InstName R1
SYMATTR Value 0.100
SYMATTR SpiceLine tol=1 pwr=3
SYMBOL res 416 112 R0
WINDOW 0 43 45 Left 2
SYMATTR InstName R2
SYMATTR Value 0.100
SYMATTR SpiceLine tol=1 pwr=3
SYMBOL res 336 -96 R0
SYMATTR InstName R3
SYMATTR Value 2.52
SYMATTR SpiceLine tol=10 pwr=1000
SYMBOL OpAmps\\UniversalOpAmp 1392 160 R0
SYMATTR InstName U1
SYMATTR Value2 Avol=0.031622Meg GBW=18Meg Vos=0.001
SYMBOL voltage -176 112 R0
WINDOW 123 0 0 Left 0
WINDOW 39 0 0 Left 0
SYMATTR InstName V2
SYMATTR Value 3.0
SYMBOL res 1216 -64 R90
WINDOW 0 0 56 VBottom 2
WINDOW 3 32 56 VTop 2
SYMATTR InstName R4
SYMATTR Value 10k
SYMBOL res 1360 -64 R90
WINDOW 0 0 56 VBottom 2
WINDOW 3 32 56 VTop 2
SYMATTR InstName R5
SYMATTR Value 40.0k
SYMBOL res 1024 160 R90
WINDOW 0 0 56 VBottom 2
WINDOW 3 32 56 VTop 2
SYMATTR InstName R6
SYMATTR Value 2.37k
SYMBOL res 1072 160 R180
WINDOW 0 36 76 Left 2
WINDOW 3 36 40 Left 2
SYMATTR InstName R7
SYMATTR Value 140k
SYMBOL res 1808 144 R90
WINDOW 0 0 56 VBottom 2
WINDOW 3 32 56 VTop 2
SYMATTR InstName R8
SYMATTR Value 20
SYMBOL cap 1808 192 R0
SYMATTR InstName C1
SYMATTR Value 1µ
SYMBOL res 1056 848 R90
WINDOW 0 0 56 VBottom 2
WINDOW 3 32 56 VTop 2
SYMATTR InstName R9
SYMATTR Value 2.37k
SYMBOL res 1296 832 R180
WINDOW 0 36 76 Left 2
WINDOW 3 36 40 Left 2
SYMATTR InstName R10
SYMATTR Value 30k
SYMBOL cap 1072 912 R0
SYMATTR InstName C2
SYMATTR Value 22µ
SYMBOL res 1040 192 R0
SYMATTR InstName R11
SYMATTR Value 12.7k
SYMATTR SpiceLine tol=1
SYMBOL res 1264 896 R0
SYMATTR InstName R12
SYMATTR Value 1k
SYMATTR SpiceLine tol=1
TEXT 472 -48 Left 2 ;df45 65W peak: R=2.652
TEXT -208 792 Left 2 !.tran 1
